/*--------------------------------*- C++ -*----------------------------------*\
  =========                 |
  \\      /  F ield         | OpenFOAM: The Open Source CFD Toolbox
   \\    /   O peration     | Website:  https://openfoam.org
    \\  /    A nd           | Version:  6
     \\/     M anipulation  |
\*---------------------------------------------------------------------------*/
FoamFile
{
    version         2;
    format          ascii;
    class           dictionary;
    location        "system";
    object          controlDict;
}

application     superDeliciousVanilla;

libs            ( "libSOWFAboundaryConditions.so" "libSOWFAincompressibleTurbulenceModels.so" );

startFrom       startTime;

startTime       20000;

stopAt          endTime;

endTime         25000;

deltaT          1;

writeControl    adjustableRunTime;

writeInterval   1000;

purgeWrite      0;

writeFormat     binary;

writePrecision  12;

writeCompression uncompressed;

timeFormat      general;

timePrecision   12;

runTimeModifiable yes;

adjustTimeStep  yes;

maxCo           0.75;

maxDeltaT       25;

functions
{
#includeFunc Q
#includeFunc vorticity
#include "sampling/planarAveraging"
#include "sampling/boundaryData"
#include "sampling/temporalAverages"
#include "sampling/slicesPrecursor"
}


// ************************************************************************* //
